18

C 0.51870075833866 1.29505445825362 -0.39453768030950
C -0.92495754788521 1.03465627530763 0.06874340929238
C 0.16998631877058 -0.86668377367787 0.67221755402151
H 0.63446672574232 1.52602421493894 -1.45873785428489
H 0.98874215009472 2.10681631694529 0.17623588216690
C -0.68192747819300 0.21885058138186 1.35761727774680
H -1.60425147289126 -0.18029607841652 1.79359695772752
H -0.13335838333374 0.77811974679659 2.12405322993522
C -1.54476652979802 -0.02942049494759 -0.86051306452276
H -2.61909149340622 -0.12780003296198 -0.67425340420700
H -1.41548619400753 0.22645172733154 -1.91704818604160
C -0.78552798816491 -1.33231136760998 -0.46420849389997
H -1.46987902877844 -2.09086154918258 -0.07089112933918
H -0.23850489554132 -1.78141582776017 -1.29874451835571
H -1.52971544171501 1.93794202824448 0.18442672175257
H 0.58922445002852 -1.67139131947136 1.27810791781572
C 1.21922865676530 -0.02172300186194 -0.03658934359973
O 2.35938939397456 -0.32670290330998 -0.29600427589827
