19
1183
O            2.26270000000000       -0.98700000000000        0.00000000000000
O            2.33720000000000        1.79170000000000        0.00040000000000
O           -3.67020000000000       -0.30300000000000        0.00040000000000
C            1.10850000000000       -0.26340000000000       -0.00010000000000
C           -1.30660000000000       -0.19850000000000       -0.00020000000000
C           -0.11770000000000       -0.92810000000000       -0.00010000000000
C            1.14600000000000        1.13090000000000       -0.00020000000000
C           -1.26900000000000        1.19590000000000       -0.00020000000000
C           -0.04280000000000        1.86060000000000       -0.00010000000000
C           -2.58530000000000       -0.89120000000000       -0.00010000000000
C            2.13710000000000       -2.40770000000000        0.00010000000000
H           -0.20620000000000       -2.00950000000000        0.00000000000000
H           -2.18260000000000        1.78480000000000       -0.00020000000000
H           -0.02790000000000        2.94730000000000        0.00000000000000
H           -2.55300000000000       -1.99400000000000       -0.00040000000000
H            1.64770000000000       -2.77020000000000       -0.91050000000000
H            1.64790000000000       -2.77010000000000        0.91060000000000
H            3.15160000000000       -2.82030000000000        0.00000000000000
H            2.16810000000000        2.74960000000000        0.00050000000000
